[Format]      =  4.0
[Frequency]   =  0
[Precision]   =  1e-008
[MinAngle]    =  30
[Depth]       =  4
[LengthUnits] =  millimeters
[ProblemType] =  planar
[Coordinates] =  cartesian
[ACSolver]    =  0
[PrevSoln]    =  ""
[Comment]     =  "Add comments here."
[PointProps]   = 0
[BdryProps]   = 0
[BlockProps]  = 3
  <BeginBlock>
    <BlockName> = "Air"
    <Mu_x> = 1
    <Mu_y> = 1
    <H_c> = 0
    <H_cAngle> = 0
    <J_re> = 0
    <J_im> = 0
    <Sigma> = 0
    <d_lam> = 0
    <Phi_h> = 0
    <Phi_hx> = 0
    <Phi_hy> = 0
    <LamType> = 0
    <LamFill> = 1
    <NStrands> = 0
    <WireD> = 0
    <BHPoints> = 0
  <EndBlock>
  <BeginBlock>
    <BlockName> = "US Steel Type 2-S 0.018 inch thickness"
    <Mu_x> = 9400
    <Mu_y> = 9400
    <H_c> = 0
    <H_cAngle> = 0
    <J_re> = 0
    <J_im> = 0
    <Sigma> = 6.25
    <d_lam> = 0.4572
    <Phi_h> = 0
    <Phi_hx> = 0
    <Phi_hy> = 0
    <LamType> = 0
    <LamFill> = 0.97999999999999998
    <NStrands> = 0
    <WireD> = 0
    <BHPoints> = 57
      0	0
      0.0044450000000000002	9.5103069999999992
      0.0058190000000000004	11.21247
      0.0071929999999999997	13.219414
      0.0085679999999999992	15.585253
      0.012898	18.371262000000002
      0.017228	21.656220999999999
      0.027470000000000001	25.5213
      0.046579000000000002	30.061992
      0.092288999999999996	35.364241
      0.22076000000000001	41.430433999999998
      0.4113	48.386302999999998
      0.60185	56.510370000000002
      0.77170000000000005	66.066035999999997
      0.91495000000000004	77.340575999999999
      1.0464	90.591025999999999
      1.1600999999999999	106.21208900000001
      1.2619	124.594492
      1.3431	146.31119100000001
      1.3947000000000001	172.06246999999999
      1.4286000000000001	202.52473699999999
      1.4507000000000001	238.525598
      1.4668000000000001	281.01202599999999
      1.4830000000000001	331.05831499999999
      1.4932000000000001	390.144609
      1.5064	459.69534399999998
      1.5166999999999999	541.73178900000005
      1.5268999999999999	638.41049399999997
      1.5371999999999999	752.33364300000005
      1.5474000000000001	886.57292700000005
      1.5576000000000001	1044.772997
      1.5679000000000001	1231.22308
      1.5840000000000001	1450.5386699999999
      1.5972	1709.1655450000001
      1.6104000000000001	2013.867792
      1.6266	2372.5235849999999
      1.6427	2795.1596880000002
      1.6589	3292.9965269999998
      1.6779999999999999	3878.9256599999999
      1.6971000000000001	4569.1013169999997
      1.7161999999999999	5382.0650580000001
      1.7353000000000001	6339.7006929999998
      1.7604	7465.5631620000004
      1.7854000000000001	8791.7222000000002
      1.8104	10352.236975
      1.8384	12188.885675
      1.8723000000000001	14347.823249999999
      1.9060999999999999	16887.93705
      1.9459	19872.0933
      1.9886999999999999	23380.665274999999
      2.0344000000000002	27504.371325
      2.0741999999999998	32364.965025000001
      2.1080999999999999	38095.340799999998
      2.1389999999999998	44847.491674999997
      2.1610999999999998	52819.565625000003
      2.1772	62227.217675
      2.1903999999999999	73321.116949999996
  <EndBlock>
  <BeginBlock>
    <BlockName> = "30 AWG"
    <Mu_x> = 1
    <Mu_y> = 1
    <H_c> = 0
    <H_cAngle> = 0
    <J_re> = 0
    <J_im> = 0
    <Sigma> = 58
    <d_lam> = 0
    <Phi_h> = 0
    <Phi_hx> = 0
    <Phi_hy> = 0
    <LamType> = 3
    <LamFill> = 1
    <NStrands> = 1
    <WireD> = 0.25472427515370799
    <BHPoints> = 0
  <EndBlock>
[CircuitProps]  = 2
  <BeginCircuit>
    <CircuitName> = "Icoil+"
    <TotalAmps_re> = 75
    <TotalAmps_im> = 0
    <CircuitType> = 1
  <EndCircuit>
  <BeginCircuit>
    <CircuitName> = "Icoil-"
    <TotalAmps_re> = -75
    <TotalAmps_im> = 0
    <CircuitType> = 1
  <EndCircuit>
[NumPoints] = 28
-400	0	0	0
400	0	0	0
-250	0	0	0
250	0	0	0
-200	100	0	0
-100	100	0	0
100	100	0	0
200	100	0	0
-200	-100	0	0
-100	-100	0	0
100	-100	0	0
200	-100	0	0
-200	103.923	0	0
0	240	0	0
200	103.923	0	0
200	-103.923	0	0
0	-240	0	0
-200	-103	0	0
-200	90	0	0
-110	90	0	0
-110	-90	0	0
-200	-90	0	0
200	90	0	0
200	-90	0	0
110	-90	0	0
110	90	0	0
-600	0	0	0
600	0	0	0
[NumSegments] = 18
4	5	-1	0	0	0
6	7	-1	0	0	0
8	9	-1	0	0	0
10	11	-1	0	0	0
5	9	-1	0	0	0
6	10	-1	0	0	0
14	7	-1	0	0	0
11	15	-1	0	0	0
17	8	-1	0	0	0
4	12	-1	0	0	0
18	19	-1	0	0	0
19	20	-1	0	0	0
20	21	-1	0	0	0
21	18	-1	0	0	0
22	23	-1	0	0	0
23	24	-1	0	0	0
24	25	-1	0	0	0
25	22	-1	0	0	0
[NumArcSegments] = 10
0	1	180	1	0	0	0
1	0	180	1	0	0	0
2	3	180	1	0	0	0
3	2	180	1	0	0	0
13	12	60	1	0	0	0
14	13	60	1	0	0	0
16	15	60	1	0	0	0
17	16	60	1	0	0	0
26	27	180	1	0	0	0
27	26	180	1	0	0	0
[NumHoles] = 0
[NumBlockLabels] = 6
325	0	2	-1	0	0	0	1	0
0	0	2	-1	0	0	0	1	0
247	0	1	-1	0	0	0	1	0
500	0	1	-1	0	0	0	1	0
-150	0	3	1	1	0	1	200	0
150	0	3	1	2	0	2	200	0
